/*--------------------------------*- C++ -*----------------------------------*\
| =========                 |                                                 |
| \\      /  F ield         | OpenFOAM: The Open Source CFD Toolbox           |
|  \\    /   O peration     | Version:  5                                     |
|   \\  /    A nd           | Web:      www.OpenFOAM.org                      |
|    \\/     M anipulation  |                                                 |
\*---------------------------------------------------------------------------*/
FoamFile
{
    version     2.0;
    format      ascii;
    class       volScalarField;
    object      epsilon;
}
// * * * * * * * * * * * * * * * * * * * * * * * * * * * * * * * * * * * * * //

#include        "include/initialConditions"

dimensions      [0 2 -3 0 0 0 0];

internalField   uniform $turbulentEpsilon;

boundaryField
{
    "(inlet)"
    {
        type            fixedValue;
	value		$internalField;
    }

    outlet
    {
        type            inletOutlet;
        inletValue      $internalField;
        value           $internalField;
    }

    topAndBottom
    {
        //type            symmetry;
        type            inletOutlet;
        inletValue      $internalField;
        value           $internalField;
    }

    shape
    {
        type            fixedValue;
        value           uniform	$wallEpsilon;
    }

    defaultFaces
    {
        type            empty;
    }

    AMI1
    {
        type            cyclicAMI;
        value           $internalField;
    }

    AMI2
    {
        type            cyclicAMI;
        value           $internalField;
    }
}


// ************************************************************************* //
