/*--------------------------------*- C++ -*----------------------------------*\
| =========                 |                                                 |
| \\      /  F ield         | OpenFOAM: The Open Source CFD Toolbox           |
|  \\    /   O peration     | Version:  2.2.2                                 |
|   \\  /    A nd           | Web:      www.OpenFOAM.org                      |
|    \\/     M anipulation  |                                                 |
\*---------------------------------------------------------------------------*/
FoamFile
{
    version     2.0;
    format      ascii;
    class       dictionary;
    object      blockMeshDict;
}
// * * * * * * * * * * * * * * * * * * * * * * * * * * * * * * * * * * * * * //

scale 0.01;

vertices
(

    //shape
    (0.000000 0.500000 0.000000) //0
    (0.056839 0.500000 0.014252)
    (0.056839 0.500000 -0.014252)
    (0.190000 0.500000 -0.000000)
    (0.000000 -0.500000 0.000000)
    (0.056839 -0.500000 0.014252)
    (0.056839 -0.500000 -0.014252)
    (0.190000 -0.500000 -0.000000) //7

    // smaller cylinder
    (0.056839 0.5 0.25) //8
    (0.306839 0.5 0)
    (0.056839 0.5 -0.25)
    (-0.19161 0.5 0)
    (0.056839 -0.5 0.25)
    (0.306839 -0.5 0)
    (0.056839 -0.5 -0.25)
    (-0.19161 -0.5 0) //15

    //Inlet
    (-2.443161 0.500000 0.000000)//16
    (0.056839 0.500000 2.500000)
    (0.056839 0.500000 -2.500000)
    (-2.443161 -0.500000 0.000000)
    (0.056839 -0.500000 2.500000)
    (0.056839 -0.500000 -2.500000)//21

    //Downstream blocks
    (0.2618999665 0.5 0.2050609665)//22 //not used
    (0.2618999665 0.5 -0.2050609665)//not used
    (0.2618999665 0.5 2.5)
    (0.2618999665 0.5 -2.5)
    (0.2618999665 -0.5 0.2050609665)//not used
    (0.2618999665 -0.5 -0.2050609665)//not used
    (0.2618999665 -0.5 2.5)
    (0.2618999665 -0.5 -2.5)//29
    (5 0.5 0.2050609665)//30//not used
    (5 0.5 -0.2050609665)//not used//not used
    (5 -0.5 0.2050609665)//not used
    (5 -0.5 -0.2050609665)//33//not used
    (5 0.5 2.5)//34
    (5 0.5 -2.5)
    (5 -0.5 2.5)
    (5 -0.5 -2.5)
    (5 0.5 0)
    (5 -0.5 0)//39

    

    // Medium cylinder , AM1
    (0.056839 0.5 0.27) //40
    (0.326839 0.5 0)
    (0.056839 0.5 -0.27)
    (-0.213161 0.5 0)
    (0.056839 -0.5 0.27)
    (0.326839 -0.5 0)
    (0.056839 -0.5 -0.27)
    (-0.213161 -0.5 0) //47

    // Copy of the medium cylinder , AMI2
    (0.056839 0.5 0.27) //48
    (0.326839 0.5 0)
    (0.056839 0.5 -0.27)
    (-0.213161 0.5 0)
    (0.056839 -0.5 0.27)
    (0.326839 -0.5 0)
    (0.056839 -0.5 -0.27)
    (-0.213161 -0.5 0) //55


    // larger cylinder
    (0.056839 0.5 0.29) //56
    (0.346839 0.5 0)
    (0.056839 0.5 -0.29)
    (-0.233161 0.5 0)
    (0.056839 -0.5 0.29)
    (0.346839 -0.5 0)
    (0.056839 -0.5 -0.29)
    (-0.233161 -0.5 0) //63

    // half shape
    (0.146332 0.500000 0.006895)//64
    (0.146332 -0.500000 0.006895)
    (0.146332 0.500000 -0.006895)
    (0.146332 -0.500000 -0.006895)//67

    //half quarter circl
    //smaller
    (0.2336156953 0.5 0.1767766953)//68
    (0.2336156953 -0.5 0.1767766953)
    (0.2336156953 0.5 -0.1767766953)
    (0.2336156953 -0.5 -0.1767766953)//71
    //medium
    (0.2477578309 0.5 0.1909188309)//72
    (0.2477578309 -0.5 0.1909188309)
    (0.2477578309 0.5 -0.1909188309)
    (0.2477578309 -0.5 -0.1909188309)//75
    //copy of medium
    (0.2477578309 0.5 0.1909188309)//76
    (0.2477578309 -0.5 0.1909188309)
    (0.2477578309 0.5 -0.1909188309)
    (0.2477578309 -0.5 -0.1909188309)//79

    
   


);

blocks          
(

    // shape
    hex (0 1 8 11 4 5 12 15) shape (38 60 1) edgeGrading (1 1 1 1 1 1 1 1 1 1 1 1)
    hex (1 64 68 8 5 65 69 12) shape (40 60 1) edgeGrading (1 1 1 1 1 1 1 1 1 1 1 1)
    hex (64 3 9 68 65 7 13 69) shape (40 60 1) edgeGrading (1 1 1 1 1 1 1 1 1 1 1 1)
    hex (2 0 11 10 6 4 15 14) shape (38 60 1) edgeGrading (1 1 1 1 1 1 1 1 1 1 1 1)
    hex (3 66 70 9 7 67 71 13) shape (40 60 1) edgeGrading (1 1 1 1 1 1 1 1 1 1 1 1)
    hex (66 2 10 70 67 6 14 71) shape (40 60 1) edgeGrading (1 1 1 1 1 1 1 1 1 1 1 1)

    //between smaller and medium cylinders
    hex (11 8 40 43 15 12 44 47) shape (38 10 1) edgeGrading (1 1 1 1 1 1 1 1 1 1 1 1)
    hex (8 68 72 40 12 69 73 44) shape (40 10 1) edgeGrading (1 1 1 1 1 1 1 1 1 1 1 1)
    hex (68 9 41 72 69 13 45 73) shape (40 10 1) edgeGrading (1 1 1 1 1 1 1 1 1 1 1 1)
    hex (9 70 74 41 13 71 75 45) shape (40 10 1) edgeGrading (1 1 1 1 1 1 1 1 1 1 1 1)
    hex (70 10 42 74 71 14 46 75) shape (40 10 1) edgeGrading (1 1 1 1 1 1 1 1 1 1 1 1)
    hex (10 11 43 42 14 15 47 46) shape (38 10 1) edgeGrading (1 1 1 1 1 1 1 1 1 1 1 1)

    // between medium and larger cylinders
    hex (51 48 56 59 55 52 60 63)  (38 10 1) edgeGrading (1 1 1 1 1 1 1 1 1 1 1 1)
    hex (48 76 22 56 52 77 26 60)  (40 10 1) edgeGrading (1 1 1 1 1 1 1 1 1 1 1 1)
    hex (76 49 57 22 77 53 61 26)  (40 10 1) edgeGrading (1 1 1 1 1 1 1 1 1 1 1 1)
    hex (49 78 23 57 53 79 27 61)  (40 10 1) edgeGrading (1 1 1 1 1 1 1 1 1 1 1 1)
    hex (78 50 58 23 79 54 62 27)  (40 10 1) edgeGrading (1 1 1 1 1 1 1 1 1 1 1 1)
    hex (50 51 59 58 54 55 63 62) (38 10 1) edgeGrading (1 1 1 1 1 1 1 1 1 1 1 1)

    // C inlet
    hex (59 56 17 16 63 60 20 19) (38 50 1) edgeGrading (1 1 1 1 100 100 100 100 1 1 1 1)
    hex (58 59 16 18 62 63 19 21) (38 50 1) edgeGrading (1 1 1 1 100 100 100 100 1 1 1 1)

    // Two blocks up and down of cylindrical regions
    hex (56 22 24 17 60 26 28 20) (40 50 1) edgeGrading (1 1 1 1 100 100 100 100 1 1 1 1)
    hex (23 58 18 25 27 62 21 29) (40 50 1) edgeGrading (1 1 1 1 100 100 100 100 1 1 1 1)

    // Downstreams regions
    hex (22 30 34 24 26 32 36 28) (75 50 1) edgeGrading (156 156 156 156 100 100 100 100 1 1 1 1)
    hex (23 25 35 31 27 29 37 33) (50 75 1) edgeGrading (100 100 100 100 156 156 156 156 1 1 1 1)
    hex (57 38 30 22 61 39 32 26) (75 40 1) edgeGrading (156 156 156 156 1 1 1 1 1 1 1 1)
    hex (57 23 31 38 61 27 33 39) (40 75 1) edgeGrading (1 1 1 1 156 156 156 156 1 1 1 1)




    





);

edges           
(

//smaller cylinder
arc 11 8 (-0.1199376953 0.5 0.1767766953)
arc 8 68 (0.1002510444 0.5 0.2462019383)
arc 68 9 (0.2917621552 0.5 0.08550503583)
arc 9 70 (0.2917621552 0.5 -0.08550503583)
arc 70 10 (0.1002510444 0.5 -0.2462019383)
arc 10 11 (-0.1199376953 0.5 -0.1767766953)


arc 15 12 (-0.1199376953 -0.5 0.1767766953)
arc 14 15 (-0.1199376953 -0.5 -0.1767766953)
arc 12 69 (0.1002510444 -0.5 0.2462019383)
arc 69 13 (0.2917621552 -0.5 0.08550503583)
arc 13 71 (0.2917621552 -0.5 -0.08550503583)
arc 71 14 (0.1002510444 -0.5 -0.2462019383)


//medium cylinder
arc 43 40 (-0.1340798309 0.5 0.1909188309)
arc 40 72 (0.103724008 0.5 0.2658980933)
arc 72 41 (0.3105560076 0.5 0.0923454387)
arc 41 74 (0.3105560076 0.5 -0.0923454387)
arc 74 42 (0.103724008 0.5 -0.2658980933)
arc 42 43(-0.1340798309 0.5 -0.1909188309)

arc 47 44 (-0.1340798309 -0.5 0.1909188309)
arc 44 73 (0.103724008 -0.5 0.2658980933)
arc 73 45 (0.3105560076 -0.5 0.0923454387)
arc 45 75 (0.3105560076 -0.5 -0.0923454387)
arc 75 46 (0.103724008 -0.5 -0.2658980933)
arc 46 47 (-0.1340798309 -0.5 -0.1909188309)


//copy of the medium cylinder
arc 51 48 (-0.1340798309 0.5 0.1909188309)
arc 48 76 (0.103724008 0.5 0.2658980933)
arc 76 49 (0.3105560076 0.5 0.0923454387)
arc 49 78 (0.3105560076 0.5 -0.0923454387)
arc 78 50 (0.103724008 0.5 -0.2658980933)
arc 50 51(-0.1340798309 0.5 -0.1909188309)

arc 55 52 (-0.1340798309 -0.5 0.1909188309)
arc 52 77 (0.103724008 -0.5 0.2658980933)
arc 77 53 (0.3105560076 -0.5 0.0923454387)
arc 53 79 (0.3105560076 -0.5 -0.0923454387)
arc 79 54 (0.103724008 -0.5 -0.2658980933)
arc 54 55(-0.1340798309 -0.5 -0.1909188309)


// larger cylinder
arc 59 56 (-0.1482219665 0.5 0.2050609665)
arc 56 22 (0.1071969715 0.5 0.2855942484)
arc 22 57 (0.32934986 0.5 0.09918584156)
arc 57 23 (0.32934986 0.5 -0.09918584156)
arc 23 58 (0.1071969715 0.5 -0.2855942484)
arc 58 59(-0.1482219665 0.5 -0.2050609665)

arc 63 60 (-0.1482219665 -0.5 0.2050609665)
arc 60 26 (0.1071969715 -0.5 0.2855942484)
arc 26 61 (0.32934986 -0.5 0.09918584156)
arc 61 27 (0.32934986 -0.5 -0.09918584156)
arc 27 62 (0.1071969715 -0.5 -0.2855942484)
arc 62 63 (-0.1482219665 -0.5 -0.2050609665) 

//inlet C
arc 16 17 (-1.710928 0.500000 1.767767) 
arc 16 18 (-1.710928 0.500000 -1.767767)
arc 19 20 (-1.710928 -0.500000 1.767767) 
arc 19 21 (-1.710928 -0.500000 -1.767767) 

spline 0 1 
        ( 
            (0.000003 0.500000 0.000166) 
            (0.000012 0.500000 0.000332) 
            (0.000027 0.500000 0.000497) 
            (0.000047 0.500000 0.000662) 
            (0.000074 0.500000 0.000826) 
            (0.000106 0.500000 0.000989) 
            (0.000144 0.500000 0.001152) 
            (0.000188 0.500000 0.001314) 
            (0.000238 0.500000 0.001476) 
            (0.000294 0.500000 0.001637) 
            (0.000356 0.500000 0.001798) 
            (0.000424 0.500000 0.001958) 
            (0.000497 0.500000 0.002117) 
            (0.000577 0.500000 0.002276) 
            (0.000662 0.500000 0.002434) 
            (0.000753 0.500000 0.002591) 
            (0.000850 0.500000 0.002748) 
            (0.000953 0.500000 0.002904) 
            (0.001061 0.500000 0.003060) 
            (0.001175 0.500000 0.003215) 
            (0.001296 0.500000 0.003369) 
            (0.001422 0.500000 0.003523) 
            (0.001554 0.500000 0.003676) 
            (0.001691 0.500000 0.003828) 
            (0.001835 0.500000 0.003979) 
            (0.001984 0.500000 0.004130) 
            (0.002139 0.500000 0.004280) 
            (0.002299 0.500000 0.004430) 
            (0.002466 0.500000 0.004578) 
            (0.002638 0.500000 0.004726) 
            (0.002816 0.500000 0.004874) 
            (0.002999 0.500000 0.005020) 
            (0.003189 0.500000 0.005166) 
            (0.003384 0.500000 0.005311) 
            (0.003585 0.500000 0.005455) 
            (0.003791 0.500000 0.005598) 
            (0.004003 0.500000 0.005741) 
            (0.004221 0.500000 0.005883) 
            (0.004444 0.500000 0.006024) 
            (0.004673 0.500000 0.006164) 
            (0.004907 0.500000 0.006303) 
            (0.005147 0.500000 0.006441) 
            (0.005393 0.500000 0.006579) 
            (0.005644 0.500000 0.006716) 
            (0.005901 0.500000 0.006851) 
            (0.006163 0.500000 0.006986) 
            (0.006431 0.500000 0.007120) 
            (0.006704 0.500000 0.007253) 
            (0.006983 0.500000 0.007385) 
            (0.007267 0.500000 0.007517) 
            (0.007557 0.500000 0.007647) 
            (0.007852 0.500000 0.007776) 
            (0.008152 0.500000 0.007904) 
            (0.008458 0.500000 0.008032) 
            (0.008770 0.500000 0.008158) 
            (0.009086 0.500000 0.008283) 
            (0.009408 0.500000 0.008407) 
            (0.009735 0.500000 0.008531) 
            (0.010068 0.500000 0.008653) 
            (0.010405 0.500000 0.008774) 
            (0.010748 0.500000 0.008894) 
            (0.011097 0.500000 0.009013) 
            (0.011450 0.500000 0.009131) 
            (0.011809 0.500000 0.009248) 
            (0.012172 0.500000 0.009363) 
            (0.012541 0.500000 0.009478) 
            (0.012915 0.500000 0.009591) 
            (0.013294 0.500000 0.009703) 
            (0.013678 0.500000 0.009814) 
            (0.014068 0.500000 0.009924) 
            (0.014462 0.500000 0.010033) 
            (0.014861 0.500000 0.010140) 
            (0.015265 0.500000 0.010247) 
            (0.015674 0.500000 0.010352) 
            (0.016088 0.500000 0.010456) 
            (0.016507 0.500000 0.010558) 
            (0.016931 0.500000 0.010660) 
            (0.017360 0.500000 0.010760) 
            (0.017793 0.500000 0.010858) 
            (0.018231 0.500000 0.010956) 
            (0.018674 0.500000 0.011052) 
            (0.019122 0.500000 0.011147) 
            (0.019575 0.500000 0.011241) 
            (0.020032 0.500000 0.011333) 
            (0.020493 0.500000 0.011424) 
            (0.020960 0.500000 0.011514) 
            (0.021431 0.500000 0.011602) 
            (0.021906 0.500000 0.011689) 
            (0.022386 0.500000 0.011775) 
            (0.022871 0.500000 0.011859) 
            (0.023360 0.500000 0.011942) 
            (0.023853 0.500000 0.012023) 
            (0.024351 0.500000 0.012103) 
            (0.024853 0.500000 0.012182) 
            (0.025360 0.500000 0.012259) 
            (0.025871 0.500000 0.012335) 
            (0.026386 0.500000 0.012410) 
            (0.026906 0.500000 0.012483) 
            (0.027429 0.500000 0.012554) 
            (0.027957 0.500000 0.012625) 
            (0.028489 0.500000 0.012693) 
            (0.029025 0.500000 0.012760) 
            (0.029566 0.500000 0.012826) 
            (0.030110 0.500000 0.012891) 
            (0.030658 0.500000 0.012954) 
            (0.031211 0.500000 0.013015) 
            (0.031767 0.500000 0.013075) 
            (0.032327 0.500000 0.013133) 
            (0.032891 0.500000 0.013190) 
            (0.033459 0.500000 0.013246) 
            (0.034031 0.500000 0.013300) 
            (0.034606 0.500000 0.013352) 
            (0.035186 0.500000 0.013403) 
            (0.035768 0.500000 0.013453) 
            (0.036355 0.500000 0.013501) 
            (0.036945 0.500000 0.013547) 
            (0.037539 0.500000 0.013592) 
            (0.038137 0.500000 0.013636) 
            (0.038738 0.500000 0.013678) 
            (0.039342 0.500000 0.013719) 
            (0.039950 0.500000 0.013758) 
            (0.040561 0.500000 0.013795) 
            (0.041176 0.500000 0.013831) 
            (0.041794 0.500000 0.013866) 
            (0.042415 0.500000 0.013899) 
            (0.043040 0.500000 0.013930) 
            (0.043668 0.500000 0.013960) 
            (0.044299 0.500000 0.013989) 
            (0.044933 0.500000 0.014016) 
            (0.045570 0.500000 0.014041) 
            (0.046210 0.500000 0.014066) 
            (0.046854 0.500000 0.014088) 
            (0.047500 0.500000 0.014109) 
            (0.048149 0.500000 0.014129) 
            (0.048801 0.500000 0.014147) 
            (0.049456 0.500000 0.014164) 
            (0.050114 0.500000 0.014179) 
            (0.050775 0.500000 0.014193) 
            (0.051438 0.500000 0.014205) 
            (0.052104 0.500000 0.014216) 
            (0.052773 0.500000 0.014225) 
            (0.053444 0.500000 0.014233) 
            (0.054118 0.500000 0.014240) 
            (0.054795 0.500000 0.014245) 
            (0.055474 0.500000 0.014249) 
            (0.056155 0.500000 0.014251) 
        )
spline 1 64 
        ( 
            (0.057525 0.500000 0.014251)
            (0.058214 0.500000 0.014249)
            (0.058904 0.500000 0.014246)
            (0.059597 0.500000 0.014241)
            (0.060293 0.500000 0.014235)
            (0.060990 0.500000 0.014228)
            (0.061689 0.500000 0.014219)
            (0.062391 0.500000 0.014209)
            (0.063095 0.500000 0.014197)
            (0.063800 0.500000 0.014184)
            (0.064508 0.500000 0.014170)
            (0.065217 0.500000 0.014155)
            (0.065928 0.500000 0.014138)
            (0.066641 0.500000 0.014120)
            (0.067356 0.500000 0.014100)
            (0.068072 0.500000 0.014080)
            (0.068790 0.500000 0.014058)
            (0.069510 0.500000 0.014035)
            (0.070232 0.500000 0.014010)
            (0.070954 0.500000 0.013985)
            (0.071679 0.500000 0.013958)
            (0.072405 0.500000 0.013930)
            (0.073132 0.500000 0.013901)
            (0.073861 0.500000 0.013870)
            (0.074590 0.500000 0.013839)
            (0.075322 0.500000 0.013806)
            (0.076054 0.500000 0.013772)
            (0.076787 0.500000 0.013737)
            (0.077522 0.500000 0.013701)
            (0.078258 0.500000 0.013663)
            (0.078995 0.500000 0.013625)
            (0.079733 0.500000 0.013585)
            (0.080471 0.500000 0.013545)
            (0.081211 0.500000 0.013503)
            (0.081951 0.500000 0.013460)
            (0.082693 0.500000 0.013417)
            (0.083435 0.500000 0.013372)
            (0.084178 0.500000 0.013326)
            (0.084921 0.500000 0.013279)
            (0.085665 0.500000 0.013231)
            (0.086410 0.500000 0.013182)
            (0.087155 0.500000 0.013133)
            (0.087901 0.500000 0.013082)
            (0.088647 0.500000 0.013030)
            (0.089393 0.500000 0.012978)
            (0.090140 0.500000 0.012924)
            (0.090887 0.500000 0.012870)
            (0.091635 0.500000 0.012814)
            (0.092382 0.500000 0.012758)
            (0.093130 0.500000 0.012701)
            (0.093878 0.500000 0.012643)
            (0.094626 0.500000 0.012584)
            (0.095374 0.500000 0.012525)
            (0.096122 0.500000 0.012464)
            (0.096870 0.500000 0.012403)
            (0.097618 0.500000 0.012341)
            (0.098365 0.500000 0.012278)
            (0.099113 0.500000 0.012215)
            (0.099860 0.500000 0.012151)
            (0.100607 0.500000 0.012086)
            (0.101353 0.500000 0.012020)
            (0.102099 0.500000 0.011953)
            (0.102845 0.500000 0.011886)
            (0.103590 0.500000 0.011818)
            (0.104335 0.500000 0.011750)
            (0.105079 0.500000 0.011681)
            (0.105822 0.500000 0.011611)
            (0.106565 0.500000 0.011541)
            (0.107307 0.500000 0.011470)
            (0.108049 0.500000 0.011398)
            (0.108789 0.500000 0.011326)
            (0.109529 0.500000 0.011253)
            (0.110267 0.500000 0.011180)
            (0.111005 0.500000 0.011106)
            (0.111742 0.500000 0.011031)
            (0.112478 0.500000 0.010956)
            (0.113213 0.500000 0.010881)
            (0.113946 0.500000 0.010805)
            (0.114678 0.500000 0.010728)
            (0.115410 0.500000 0.010651)
            (0.116139 0.500000 0.010574)
            (0.116868 0.500000 0.010496)
            (0.117595 0.500000 0.010418)
            (0.118321 0.500000 0.010339)
            (0.119046 0.500000 0.010260)
            (0.119768 0.500000 0.010181)
            (0.120490 0.500000 0.010101)
            (0.121210 0.500000 0.010020)
            (0.121928 0.500000 0.009940)
            (0.122644 0.500000 0.009859)
            (0.123359 0.500000 0.009777)
            (0.124072 0.500000 0.009696)
            (0.124783 0.500000 0.009614)
            (0.125492 0.500000 0.009531)
            (0.126200 0.500000 0.009449)
            (0.126905 0.500000 0.009366)
            (0.127609 0.500000 0.009283)
            (0.128311 0.500000 0.009200)
            (0.129010 0.500000 0.009116)
            (0.129707 0.500000 0.009032)
            (0.130403 0.500000 0.008948)
            (0.131096 0.500000 0.008864)
            (0.131786 0.500000 0.008779)
            (0.132475 0.500000 0.008695)
            (0.133161 0.500000 0.008610)
            (0.133845 0.500000 0.008525)
            (0.134526 0.500000 0.008440)
            (0.135205 0.500000 0.008355)
            (0.135882 0.500000 0.008269)
            (0.136556 0.500000 0.008184)
            (0.137227 0.500000 0.008098)
            (0.137896 0.500000 0.008012)
            (0.138562 0.500000 0.007927)
            (0.139225 0.500000 0.007841)
            (0.139886 0.500000 0.007755)
            (0.140544 0.500000 0.007669)
            (0.141199 0.500000 0.007583)
            (0.141851 0.500000 0.007497)
            (0.142500 0.500000 0.007411)
            (0.143146 0.500000 0.007325)
            (0.143790 0.500000 0.007239)
            (0.144430 0.500000 0.007153)
            (0.145067 0.500000 0.007067)
            (0.145701 0.500000 0.006981)
            )




spline 64 3
            (
            (0.146960 0.500000 0.006809)
            (0.147585 0.500000 0.006724)
            (0.148206 0.500000 0.006638)
            (0.148824 0.500000 0.006553)
            (0.149439 0.500000 0.006467)
            (0.150050 0.500000 0.006382)
            (0.150658 0.500000 0.006297)
            (0.151262 0.500000 0.006212)
            (0.151863 0.500000 0.006127)
            (0.152461 0.500000 0.006042)
            (0.153055 0.500000 0.005957)
            (0.153645 0.500000 0.005873)
            (0.154232 0.500000 0.005789)
            (0.154814 0.500000 0.005705)
            (0.155394 0.500000 0.005621)
            (0.155969 0.500000 0.005538)
            (0.156541 0.500000 0.005454)
            (0.157109 0.500000 0.005371)
            (0.157673 0.500000 0.005288)
            (0.158233 0.500000 0.005206)
            (0.158789 0.500000 0.005124)
            (0.159342 0.500000 0.005042)
            (0.159890 0.500000 0.004960)
            (0.160434 0.500000 0.004879)
            (0.160975 0.500000 0.004798)
            (0.161511 0.500000 0.004717)
            (0.162043 0.500000 0.004637)
            (0.162571 0.500000 0.004557)
            (0.163094 0.500000 0.004477)
            (0.163614 0.500000 0.004398)
            (0.164129 0.500000 0.004319)
            (0.164640 0.500000 0.004241)
            (0.165147 0.500000 0.004162)
            (0.165649 0.500000 0.004085)
            (0.166147 0.500000 0.004008)
            (0.166640 0.500000 0.003931)
            (0.167129 0.500000 0.003855)
            (0.167614 0.500000 0.003779)
            (0.168094 0.500000 0.003703)
            (0.168569 0.500000 0.003628)
            (0.169040 0.500000 0.003554)
            (0.169507 0.500000 0.003480)
            (0.169968 0.500000 0.003407)
            (0.170425 0.500000 0.003334)
            (0.170878 0.500000 0.003262)
            (0.171326 0.500000 0.003190)
            (0.171769 0.500000 0.003119)
            (0.172207 0.500000 0.003048)
            (0.172640 0.500000 0.002978)
            (0.173069 0.500000 0.002908)
            (0.173493 0.500000 0.002839)
            (0.173912 0.500000 0.002771)
            (0.174326 0.500000 0.002703)
            (0.174735 0.500000 0.002636)
            (0.175139 0.500000 0.002570)
            (0.175538 0.500000 0.002504)
            (0.175932 0.500000 0.002439)
            (0.176322 0.500000 0.002374)
            (0.176706 0.500000 0.002311)
            (0.177085 0.500000 0.002248)
            (0.177459 0.500000 0.002185)
            (0.177828 0.500000 0.002123)
            (0.178191 0.500000 0.002062)
            (0.178550 0.500000 0.002002)
            (0.178903 0.500000 0.001943)
            (0.179252 0.500000 0.001884)
            (0.179595 0.500000 0.001826)
            (0.179932 0.500000 0.001768)
            (0.180265 0.500000 0.001712)
            (0.180592 0.500000 0.001656)
            (0.180914 0.500000 0.001601)
            (0.181230 0.500000 0.001547)
            (0.181542 0.500000 0.001494)
            (0.181848 0.500000 0.001441)
            (0.182148 0.500000 0.001389)
            (0.182443 0.500000 0.001338)
            (0.182733 0.500000 0.001288)
            (0.183017 0.500000 0.001239)
            (0.183296 0.500000 0.001191)
            (0.183569 0.500000 0.001143)
            (0.183837 0.500000 0.001097)
            (0.184099 0.500000 0.001051)
            (0.184356 0.500000 0.001006)
            (0.184607 0.500000 0.000962)
            (0.184853 0.500000 0.000919)
            (0.185093 0.500000 0.000877)
            (0.185327 0.500000 0.000836)
            (0.185556 0.500000 0.000795)
            (0.185779 0.500000 0.000756)
            (0.185997 0.500000 0.000717)
            (0.186209 0.500000 0.000680)
            (0.186415 0.500000 0.000643)
            (0.186616 0.500000 0.000608)
            (0.186811 0.500000 0.000573)
            (0.187001 0.500000 0.000539)
            (0.187184 0.500000 0.000507)
            (0.187362 0.500000 0.000475)
            (0.187534 0.500000 0.000444)
            (0.187701 0.500000 0.000415)
            (0.187861 0.500000 0.000386)
            (0.188016 0.500000 0.000358)
            (0.188165 0.500000 0.000331)
            (0.188309 0.500000 0.000305)
            (0.188446 0.500000 0.000281)
            (0.188578 0.500000 0.000257)
            (0.188704 0.500000 0.000234)
            (0.188825 0.500000 0.000213)
            (0.188939 0.500000 0.000192)
            (0.189047 0.500000 0.000172)
            (0.189150 0.500000 0.000154)
            (0.189247 0.500000 0.000136)
            (0.189338 0.500000 0.000120)
            (0.189423 0.500000 0.000105)
            (0.189503 0.500000 0.000090)
            (0.189576 0.500000 0.000077)
            (0.189644 0.500000 0.000065)
            (0.189706 0.500000 0.000053)
            (0.189762 0.500000 0.000043)
            (0.189812 0.500000 0.000034)
            (0.189856 0.500000 0.000026)
            (0.189894 0.500000 0.000019)
            (0.189926 0.500000 0.000013)
            (0.189953 0.500000 0.000009)
            (0.189973 0.500000 0.000005)
            (0.189988 0.500000 0.000002)
            (0.189997 0.500000 0.000001)
        ) 
    spline 0 2 
        ( 
            (0.000003 0.500000 -0.000166)
            (0.000012 0.500000 -0.000332)
            (0.000027 0.500000 -0.000497)
            (0.000047 0.500000 -0.000662)
            (0.000074 0.500000 -0.000826)
            (0.000106 0.500000 -0.000989)
            (0.000144 0.500000 -0.001152)
            (0.000188 0.500000 -0.001314)
            (0.000238 0.500000 -0.001476)
            (0.000294 0.500000 -0.001637)
            (0.000356 0.500000 -0.001798)
            (0.000424 0.500000 -0.001958)
            (0.000497 0.500000 -0.002117)
            (0.000577 0.500000 -0.002276)
            (0.000662 0.500000 -0.002434)
            (0.000753 0.500000 -0.002591)
            (0.000850 0.500000 -0.002748)
            (0.000953 0.500000 -0.002904)
            (0.001061 0.500000 -0.003060)
            (0.001175 0.500000 -0.003215)
            (0.001296 0.500000 -0.003369)
            (0.001422 0.500000 -0.003523)
            (0.001554 0.500000 -0.003676)
            (0.001691 0.500000 -0.003828)
            (0.001835 0.500000 -0.003979)
            (0.001984 0.500000 -0.004130)
            (0.002139 0.500000 -0.004280)
            (0.002299 0.500000 -0.004430)
            (0.002466 0.500000 -0.004578)
            (0.002638 0.500000 -0.004726)
            (0.002816 0.500000 -0.004874)
            (0.002999 0.500000 -0.005020)
            (0.003189 0.500000 -0.005166)
            (0.003384 0.500000 -0.005311)
            (0.003585 0.500000 -0.005455)
            (0.003791 0.500000 -0.005598)
            (0.004003 0.500000 -0.005741)
            (0.004221 0.500000 -0.005883)
            (0.004444 0.500000 -0.006024)
            (0.004673 0.500000 -0.006164)
            (0.004907 0.500000 -0.006303)
            (0.005147 0.500000 -0.006441)
            (0.005393 0.500000 -0.006579)
            (0.005644 0.500000 -0.006716)
            (0.005901 0.500000 -0.006851)
            (0.006163 0.500000 -0.006986)
            (0.006431 0.500000 -0.007120)
            (0.006704 0.500000 -0.007253)
            (0.006983 0.500000 -0.007385)
            (0.007267 0.500000 -0.007517)
            (0.007557 0.500000 -0.007647)
            (0.007852 0.500000 -0.007776)
            (0.008152 0.500000 -0.007904)
            (0.008458 0.500000 -0.008032)
            (0.008770 0.500000 -0.008158)
            (0.009086 0.500000 -0.008283)
            (0.009408 0.500000 -0.008407)
            (0.009735 0.500000 -0.008531)
            (0.010068 0.500000 -0.008653)
            (0.010405 0.500000 -0.008774)
            (0.010748 0.500000 -0.008894)
            (0.011097 0.500000 -0.009013)
            (0.011450 0.500000 -0.009131)
            (0.011809 0.500000 -0.009248)
            (0.012172 0.500000 -0.009363)
            (0.012541 0.500000 -0.009478)
            (0.012915 0.500000 -0.009591)
            (0.013294 0.500000 -0.009703)
            (0.013678 0.500000 -0.009814)
            (0.014068 0.500000 -0.009924)
            (0.014462 0.500000 -0.010033)
            (0.014861 0.500000 -0.010140)
            (0.015265 0.500000 -0.010247)
            (0.015674 0.500000 -0.010352)
            (0.016088 0.500000 -0.010456)
            (0.016507 0.500000 -0.010558)
            (0.016931 0.500000 -0.010660)
            (0.017360 0.500000 -0.010760)
            (0.017793 0.500000 -0.010858)
            (0.018231 0.500000 -0.010956)
            (0.018674 0.500000 -0.011052)
            (0.019122 0.500000 -0.011147)
            (0.019575 0.500000 -0.011241)
            (0.020032 0.500000 -0.011333)
            (0.020493 0.500000 -0.011424)
            (0.020960 0.500000 -0.011514)
            (0.021431 0.500000 -0.011602)
            (0.021906 0.500000 -0.011689)
            (0.022386 0.500000 -0.011775)
            (0.022871 0.500000 -0.011859)
            (0.023360 0.500000 -0.011942)
            (0.023853 0.500000 -0.012023)
            (0.024351 0.500000 -0.012103)
            (0.024853 0.500000 -0.012182)
            (0.025360 0.500000 -0.012259)
            (0.025871 0.500000 -0.012335)
            (0.026386 0.500000 -0.012410)
            (0.026906 0.500000 -0.012483)
            (0.027429 0.500000 -0.012554)
            (0.027957 0.500000 -0.012625)
            (0.028489 0.500000 -0.012693)
            (0.029025 0.500000 -0.012760)
            (0.029566 0.500000 -0.012826)
            (0.030110 0.500000 -0.012891)
            (0.030658 0.500000 -0.012954)
            (0.031211 0.500000 -0.013015)
            (0.031767 0.500000 -0.013075)
            (0.032327 0.500000 -0.013133)
            (0.032891 0.500000 -0.013190)
            (0.033459 0.500000 -0.013246)
            (0.034031 0.500000 -0.013300)
            (0.034606 0.500000 -0.013352)
            (0.035186 0.500000 -0.013403)
            (0.035768 0.500000 -0.013453)
            (0.036355 0.500000 -0.013501)
            (0.036945 0.500000 -0.013547)
            (0.037539 0.500000 -0.013592)
            (0.038137 0.500000 -0.013636)
            (0.038738 0.500000 -0.013678)
            (0.039342 0.500000 -0.013719)